*Heading
** Job name: BeamEPP Model name: BeamTRI
** Generated by: Abaqus/CAE 2021
*Preprint, echo=NO, model=NO, history=NO, contact=NO
**
** PARTS
**
*Part, name=Part-1
*Node
      1,        -500.,         -50.
      2,        -480.,         -50.
      3,        -460.,         -50.
      4,        -440.,         -50.
      5,        -420.,         -50.
      6,        -400.,         -50.
      7,        -380.,         -50.
      8,        -360.,         -50.
      9,        -340.,         -50.
     10,        -320.,         -50.
     11,        -300.,         -50.
     12,        -280.,         -50.
     13,        -260.,         -50.
     14,        -240.,         -50.
     15,        -220.,         -50.
     16,        -200.,         -50.
     17,        -180.,         -50.
     18,        -160.,         -50.
     19,        -140.,         -50.
     20,        -120.,         -50.
** ... 235 like lines cut
*USER ELEMENT, TYPE=U2003, NODES=3, COORDINATES=2, PROPERTIES=2, VARIABLES=10, UNSYMM
1,2
*USER ELEMENT, TYPE=U2004, NODES=4, COORDINATES=2, PROPERTIES=2, VARIABLES=10, UNSYMM
1,2
*Element, type=U2003, elset=esfemfreeedge
       1,        1,        2,       53
       5,       52,        1,       53
       6,        2,        3,       54
      10,        3,        4,       55
      14,        4,        5,       56
      18,        5,        6,       57
      22,        6,        7,       58
      26,        7,        8,       59
      30,        8,        9,       60
      34,        9,       10,       61
      38,       10,       11,       62
      42,       11,       12,       63
      46,       12,       13,       64
      50,       13,       14,       65
      54,       14,       15,       66
      58,       15,       16,       67
      62,       16,       17,       68
      66,       17,       18,       69
      70,       18,       19,       70
      74,       19,       20,       71
** ... 88 like lines cut
*Element, type=U2004, elset=esfemedge
       2,        2,       54,       53,        1
       3,       53,       52,        1,        2
       4,       53,      104,       52,        1
       7,        3,       55,       54,        2
       8,       54,       53,        2,        3
       9,       54,      105,       53,        2
      11,        4,       56,       55,        3
      12,       55,       54,        3,        4
      13,       55,      106,       54,        3
      15,        5,       57,       56,        4
      16,       56,       55,        4,        5
      17,       56,      107,       55,        4
      19,        6,       58,       57,        5
      20,       57,       56,        5,        6
      21,       57,      108,       56,        5
      23,        7,       59,       58,        6
      24,       58,       57,        6,        7
      25,       58,      109,       57,        6
      27,        8,       60,       59,        7
      28,       59,       58,        7,        8
** ... 526 like lines cut
*Element, type=CPS3, elset=ghost
       655,   1,   2,  53
       656,  53,  52,   1
       657,   2,   3,  54
       658,  54,  53,   2
       659,   3,   4,  55
       660,  55,  54,   3
       661,   4,   5,  56
       662,  56,  55,   4
       663,   5,   6,  57
      664,  57,  56,   5
      665,   6,   7,  58
      666,  58,  57,   6
      667,   7,   8,  59
      668,  59,  58,   7
      669,   8,   9,  60
      670,  60,  59,   8
      671,   9,  10,  61
      672,  61,  60,   9
      673,  10,  11,  62
      674,  62,  61,  10
** ... 380 like lines cut
*Nset, nset=Fixed, generate
   1,  205,   51
*Elset, elset=Fixed, generate
   2,  302,  100
*Nset, nset=Load
 153,
*Nset, nset=Pin
 103,
** Section: Section-1
*Solid Section, elset=ghost, material=ghostmat
*UEL PROPERTY, ELSET=esfemfreeedge
70000.0000, 0.3000, 
*UEL PROPERTY, ELSET=esfemedge
70000.0000, 0.3000, 
*End Part
**  
**
** ASSEMBLY
**
*Assembly, name=Assembly
**  
*Instance, name=Part-1-1, part=Part-1
*End Instance
**  
*End Assembly
** 
** MATERIALS
** 
*Material, name=ghostmat
*Elastic
1.e-8, 0.
** 
** BOUNDARY CONDITIONS
** 
** Name: FIxed Type: Displacement/Rotation
*Boundary
Part-1-1.Fixed, 1, 1
Part-1-1.Fixed, 6, 6
** Name: Pin Type: Displacement/Rotation
*Boundary
Part-1-1.Pin, 2, 2
** ----------------------------------------------------------------
** 
** STEP: Step-1
** 
*Step, name=Step-1, nlgeom=YES, inc=10000
*Static
0.001, 1., 1e-12, 0.001
** 
** BOUNDARY CONDITIONS
** 
** Name: Load Type: Displacement/Rotation
*Boundary
Part-1-1.Load, 2, 2, -170.
** 
** OUTPUT REQUESTS
** 
*Restart, write, frequency=0
** 
** FIELD OUTPUT: F-Output-1
** 
*Output, field, variable=PRESELECT
** 
** HISTORY OUTPUT: H-Output-1
** 
*Output, history, variable=PRESELECT
*End Step
