*Heading
** Job name: Job-2 Model name: Model-2
** Generated by: Abaqus/CAE 2021
*Preprint, echo=NO, model=NO, history=NO, contact=NO
**
** PARTS
**
*Part, name=CrossSection
*Node
      1,           0.,           0.
      2,   1.05499995,           0.
      3,   2.15366292,   1.51217985
      4,   1.71042144,   1.28633702
      5,   1.35866296,  0.934578538
      6,   1.13282013,  0.491337031
      7,   2.64499998,   1.59000003
      8,   2.64499998,         12.5
      9,           0.,         12.5
     10,  0.105499998,           0.
     11,  0.210999995,           0.
     12,  0.316500008,           0.
     13,  0.421999991,           0.
     14,  0.527499974,           0.
     15,  0.633000016,           0.
     16,  0.738499999,           0.
     17,  0.843999982,           0.
     18,  0.949500024,           0.
     19,   2.47879982,   1.58128977
     20,   2.31442046,    1.5552547
** ... 417 like lines cut
*USER ELEMENT, TYPE=U2003, NODES=3, COORDINATES=2, PROPERTIES=2, VARIABLES=19, UNSYMM
1,2
*USER ELEMENT, TYPE=U2004, NODES=4, COORDINATES=2, PROPERTIES=2, VARIABLES=19, UNSYMM
1,2
*Element, type=U2003, elset=esfemfreeedge
       2,       11,       12,      104
       7,       24,       23,      116
      25,       13,       14,      147
      41,       18,        2,       28
      42,        2,       28,       18
      44,       19,        7,       57
      45,        7,       57,       19
      52,       21,        3,      113
      69,       29,        8,       64
      70,        8,       64,       29
     147,       54,       53,      131
     155,       58,        9,      103
     156,        9,      103,       58
     163,       60,       59,      360
     175,        1,       10,      120
     289,       14,       15,      105
     295,       12,       13,      147
     296,       15,       16,      106
     299,       16,       17,      107
     301,       27,        6,      112
** ... 83 like lines cut
*Element, type=U2004, elset=esfemedge
       1,      104,      120,       11,       12
       3,       12,      147,      104,       11
       4,      120,       10,       11,      104
       5,      104,      121,      120,       11
       6,      116,      115,       24,       23
       8,       23,      110,      116,       24
       9,      129,       74,       73,      128
      10,       73,       72,      128,      129
      11,      128,      172,      129,       73
      12,      130,       75,       74,      129
      13,       74,       73,      129,      130
      14,      129,      174,      130,       74
      15,      151,      193,      113,        3
      16,      113,       21,        3,      151
      17,        3,       20,      151,      113
      18,      395,      424,      358,      315
      19,      358,      316,      315,      395
      20,      315,      353,      395,      358
      21,      119,        6,       26,      114
      22,       26,       25,      114,      119
** ... 1082 like lines cut
*Element, type=CPS3, elset=ghost
      1206, 104,  11,  12
      1207, 120,  11, 104
      1208, 116,  24,  23
      1209, 129,  73, 128
      1210, 130,  74, 129
      1211, 151, 113,   3
      1212, 395, 358, 315
      1213, 119,  26, 114
      1214, 147,  13,  14
     1215, 192, 153, 121
     1216, 105, 147,  14
     1217, 106, 105,  15
     1218, 107, 106,  16
     1219, 108, 107,  17
     1220,  18,   2,  28
     1221,  19,   7,  57
     1222, 152,  19,  57
     1223, 113, 109,  21
     1224, 113,  21,   3
     1225, 118,  22, 109
** ... 749 like lines cut
*Nset, nset=SymX
  1,  2, 10, 11, 12, 13, 14, 15, 16, 17, 18
*Nset, nset=SymY
   1,   9,  65,  66,  67,  68,  69,  70,  71,  72,  73,  74,  75,  76,  77,  78
  79,  80,  81,  82,  83,  84,  85,  86,  87,  88,  89,  90,  91,  92,  93,  94
  95,  96,  97,  98,  99, 100, 101, 102, 103
*Nset, nset=Load
  8,  9, 58, 59, 60, 61, 62, 63, 64
** Section: Section-1
*Solid Section, elset=ghost, material=ghostmat
,
*UEL PROPERTY, ELSET=esfemfreeedge
70000.0000, 0.3000, 
*UEL PROPERTY, ELSET=esfemedge
70000.0000, 0.3000, 
*End Part
**  
**
** ASSEMBLY
**
*Assembly, name=Assembly
**  
*Instance, name=CrossSection-1, part=CrossSection
*End Instance
**  
*End Assembly
** 
** MATERIALS
** 
*Material, name=ghostmat
*Elastic
 1e-08,0.
** 
** BOUNDARY CONDITIONS
** 
** Name: symX Type: Displacement/Rotation
*Boundary
CrossSection-1.SymX, 2, 2
CrossSection-1.SymX, 6, 6
** Name: symY Type: Displacement/Rotation
*Boundary
CrossSection-1.SymY, 1, 1
CrossSection-1.SymY, 6, 6
** ----------------------------------------------------------------
** 
** STEP: Step-1
** 
*Step, name=Step-1, nlgeom=YES, inc=100000
*Static
0.001, 1., 1e-12, 0.001
** 
** BOUNDARY CONDITIONS
** 
** Name: Load Type: Displacement/Rotation
*Boundary
CrossSection-1.Load, 2, 2, 0.35
** 
** CONTROLS
** 
*Controls, reset
*Controls, parameters=time incrementation
800, 1000, , 1500, 1200, 50, , 125, , , 
** 
** OUTPUT REQUESTS
** 
*Restart, write, frequency=0
** 
** FIELD OUTPUT: F-Output-1
** 
*Output, field, variable=PRESELECT
** 
** HISTORY OUTPUT: H-Output-1
** 
*Output, history, variable=PRESELECT
*End Step
