*Heading
** Job name: NLBeam Model name: NLBeam
** Generated by: Abaqus/CAE Student Edition 2019
*Preprint, echo=NO, model=NO, history=NO, contact=NO
**
** PARTS
**
*Part, name=Beam
*Node
      1,          55.,          10.
      2,          50.,          10.
      3,          45.,          10.
      4,          40.,          10.
      5,          35.,          10.
      6,          30.,          10.
      7,          25.,          10.
      8,          20.,          10.
      9,          15.,          10.
     10,          10.,          10.
     11,           5.,          10.
     12,           0.,          10.
     13,          -5.,          10.
     14,         -10.,          10.
     15,         -15.,          10.
     16,         -20.,          10.
     17,         -25.,          10.
     18,         -30.,          10.
     19,         -35.,          10.
     20,         -40.,          10.
** ... 73 like lines cut
*USER ELEMENT, TYPE=U2003, NODES=3, COORDINATES=2, PROPERTIES=2, VARIABLES=10
1,2
*USER ELEMENT, TYPE=U2004, NODES=4, COORDINATES=2, PROPERTIES=2, VARIABLES=10
1,2
*Element, type=U2003, elset=esfemfreeedge
      1,       1,       2,      33
      5,      32,       1,      33
      6,       2,       3,      34
     10,       3,       4,      35
     14,       4,       5,      36
     18,       5,       6,      37
     22,       6,       7,      38
     26,       7,       8,      39
     30,       8,       9,      40
     34,       9,      10,      41
     38,      10,      11,      42
     42,      11,      12,      43
     46,      12,      13,      44
     50,      13,      14,      45
     54,      14,      15,      46
     58,      15,      16,      47
     62,      16,      17,      48
     66,      17,      18,      49
     70,      18,      19,      50
     74,      19,      20,      51
** ... 44 like lines cut
*Element, type=U2004, elset=esfemedge
      2,       2,      34,      33,       1
      3,      33,      32,       1,       2
      4,      33,      64,      32,       1
      7,       3,      35,      34,       2
      8,      34,      33,       2,       3
      9,      34,      65,      33,       2
     11,       4,      36,      35,       3
     12,      35,      34,       3,       4
     13,      35,      66,      34,       3
     15,       5,      37,      36,       4
     16,      36,      35,       4,       5
     17,      36,      67,      35,       4
     19,       6,      38,      37,       5
     20,      37,      36,       5,       6
     21,      37,      68,      36,       5
     23,       7,      39,      38,       6
     24,      38,      37,       6,       7
     25,      38,      69,      37,       6
     27,       8,      40,      39,       7
     28,      39,      38,       7,       8
** ... 128 like lines cut
*Element, type=CPS3, elset=ghost
      213,  1,  2, 33
      214, 33, 32,  1
      215,  2,  3, 34
      216, 34, 33,  2
      217,  3,  4, 35
      218, 35, 34,  3
      219,  4,  5, 36
      220, 36, 35,  4
      221,  5,  6, 37
     222, 37, 36,  5
     223,  6,  7, 38
     224, 38, 37,  6
     225,  7,  8, 39
     226, 39, 38,  7
     227,  8,  9, 40
     228, 40, 39,  8
     229,  9, 10, 41
     230, 41, 40,  9
     231, 10, 11, 42
     232, 42, 41, 10
** ... 100 like lines cut
*Nset, nset=Fixed, generate
 31,  93,  31
*Nset, nset=Load, generate
  1,  63,  31
** Section: Section-1
*Solid Section, elset=ghost, material=ghostmat
,
*UEL PROPERTY, ELSET=esfemfreeedge
70000.0000, 0.3000, 
*UEL PROPERTY, ELSET=esfemedge
70000.0000, 0.3000, 
*End Part
**  
**
** ASSEMBLY
**
*Assembly, name=Assembly
**  
*Instance, name=Beam-1, part=Beam
*End Instance
**  
*End Assembly
** 
** MATERIALS
** 
*Material, name=ghostmat
*Elastic
 1e-08,0.
** 
** BOUNDARY CONDITIONS
** 
** Name: FixedBC Type: Displacement/Rotation
*Boundary
Beam-1.Fixed, 1, 1
Beam-1.Fixed, 2, 2
Beam-1.Fixed, 6, 6
** ----------------------------------------------------------------
** 
** STEP: Step-1
** 
*Step, name=Step-1, nlgeom=YES, inc=1000
*Static
0.001, 1., 1e-07, 0.001
** 
** LOADS
** 
** Name: Load-1   Type: Concentrated force
*Cload
Beam-1.Load, 2, 1500.
** 
** OUTPUT REQUESTS
** 
*Restart, write, frequency=0
** 
** FIELD OUTPUT: F-Output-1
** 
*Output, field
*Node Output
CF, RF, U
** 
** HISTORY OUTPUT: H-Output-1
** 
*Output, history, variable=PRESELECT
*End Step
