*Heading
** Job name: PPlate Model name: PPlate_PS
** Generated by: Abaqus/CAE 2021
*Preprint, echo=NO, model=NO, history=NO, contact=NO
**
** PARTS
**
*Part, name=Plate
*Node
      1,   4.73684216,          18.
      2,           0.,          18.
      3,           0.,   5.48148155
      4,   4.17649174,   3.81410074
      5,           0.,           5.
      6,   3.69504452,    3.3684783
      7,           5.,           0.
      8,    5.4545455,           0.
      9,          10.,           0.
     10,          10.,   4.23529434
     11,          10.,          18.
     12,   4.21052647,          18.
     13,   3.68421054,          18.
     14,   3.15789485,          18.
     15,   2.63157892,          18.
     16,   2.10526323,          18.
     17,   1.57894742,          18.
     18,   1.05263162,          18.
     19,  0.526315808,          18.
     20,           0.,   17.5185184
** ... 626 like lines cut
*USER ELEMENT, TYPE=U2003, NODES=3, COORDINATES=2, PROPERTIES=2, VARIABLES=10
1,2
*USER ELEMENT, TYPE=U2004, NODES=4, COORDINATES=2, PROPERTIES=2, VARIABLES=10
1,2
*Element, type=U2003, elset=esfemfreeedge
        1,         1,        12,        77
        6,        12,        13,       159
       10,        13,        14,       160
       14,        14,        15,       161
       18,        15,        16,       162
       22,        16,        17,       163
       26,        17,        18,       164
       30,        18,        19,       166
       34,        19,         2,        20
       35,         2,        20,        19
       63,        20,        21,       166
       91,        21,        22,       174
      119,        22,        23,       182
      147,        23,        24,       190
      175,        24,        25,       198
      203,        25,        26,       206
      231,        26,        27,       214
      259,        27,        28,       222
      287,        28,        29,       230
      315,        29,        30,       238
** ... 88 like lines cut
*Element, type=U2004, elset=esfemedge
        2,        12,       159,        77,         1
        3,        77,       646,         1,        12
        4,        12,        13,       159,        77
        5,       159,        76,        77,        12
        7,        13,       160,       159,        12
        8,        13,        14,       160,       159
        9,       160,       167,       159,        13
       11,        14,       161,       160,        13
       12,        14,        15,       161,       160
       13,       161,       169,       160,        14
       15,        15,       162,       161,        14
       16,        15,        16,       162,       161
       17,       162,       170,       161,        15
       19,        16,       163,       162,        15
       20,        16,        17,       163,       162
       21,       163,       171,       162,        16
       23,        17,       164,       163,        16
       24,        17,        18,       164,       163
       25,       164,       172,       163,        17
       27,        18,       165,       164,        17
** ... 1699 like lines cut
*Element, type=CPS3, elset=ghost
        1828,   1,  12,  77
        1829,  12, 159,  77
        1830,  12,  13, 159
        1831,  13, 160, 159
        1832,  13,  14, 160
        1833,  14, 161, 160
        1834,  14,  15, 161
        1835,  15, 162, 161
        1836,  15,  16, 162
       1837,  16, 163, 162
       1838,  16,  17, 163
       1839,  17, 164, 163
       1840,  17,  18, 164
       1841,  18, 165, 164
       1842,  18,  19, 166
       1843, 166, 165,  18
       1844,  19,   2,  20
       1845,  20, 166,  19
       1846,  77, 159,  76
       1847, 159, 167,  76
** ... 1162 like lines cut
*Nset, nset=SymX
   7,   8,   9, 100, 101, 102, 103, 104, 105, 106, 107, 108
*Nset, nset=SymY
  2,  3,  5, 20, 21, 22, 23, 24, 25, 26, 27, 28, 29, 30, 31, 32
 33, 34, 35, 36, 37, 38, 39, 40, 41, 42, 43, 44
*Nset, nset=Load
   1,   2,  11,  12,  13,  14,  15,  16,  17,  18,  19, 150, 151, 152, 153, 154
 155, 156, 157, 158
** Section: Section-1
*Solid Section, elset=ghost, material=ghostmat
,
*UEL PROPERTY, ELSET=esfemfreeedge
70000.0000, 0.3000, 
*UEL PROPERTY, ELSET=esfemedge
70000.0000, 0.3000, 
*End Part
**  
**
** ASSEMBLY
**
*Assembly, name=Assembly
**  
*Instance, name=Plate-1, part=Plate
*End Instance
**  
*End Assembly
** 
** MATERIALS
** 
*Material, name=ghostmat
*Elastic
0.00000001, 0.
** 
** BOUNDARY CONDITIONS
** 
** Name: SymmX Type: Displacement/Rotation
*Boundary
Plate-1.SymX, 2, 2
Plate-1.SymX, 6, 6
** Name: SymmY Type: Displacement/Rotation
*Boundary
Plate-1.SymY, 1, 1
Plate-1.SymY, 6, 6
** ----------------------------------------------------------------
** 
** STEP: Step-1
** 
*Step, name=Step-1, nlgeom=YES, inc=100000, unsymm=YES
*Static
0.001, 1., 1e-05, 0.001
** 
** BOUNDARY CONDITIONS
** 
** Name: Load Type: Displacement/Rotation
*Boundary
Plate-1.Load, 2, 2, 0.16
** 
** OUTPUT REQUESTS
** 
*Restart, write, frequency=0
** 
** FIELD OUTPUT: F-Output-1
** 
*Output, field, variable=PRESELECT
** 
** HISTORY OUTPUT: H-Output-1
** 
*Output, history, variable=PRESELECT
*End Step
