*Heading
** Job name: TT_Bar Model name: TensileTest
** Generated by: Abaqus/CAE 2021
*Preprint, echo=NO, model=NO, history=NO, contact=NO
**
** PARTS
**
*Part, name=Part-1
*Node
      1,           0.,           0.
      2,   0.50315094,           0.
      3,   1.00630188,           0.
      4,   1.50945282,           0.
      5,   2.01260376,           0.
      6,    2.5157547,           0.
      7,   3.01890564,           0.
      8,   3.52205658,           0.
      9,   4.02520752,           0.
     10,   4.52835846,           0.
     11,    5.0315094,           0.
     12,   5.53466034,           0.
     13,   6.03781128,           0.
     14,   6.54096222,           0.
     15,   7.04411316,           0.
     16,    7.5472641,           0.
     17,   8.05041504,           0.
     18,   8.55356598,           0.
     19,   9.05671692,           0.
     20,   9.55986786,           0.
** ... 736 like lines cut
*USER ELEMENT, TYPE=U2003, NODES=3, COORDINATES=2, PROPERTIES=2, VARIABLES=19
1,2
*USER ELEMENT, TYPE=U2004, NODES=4, COORDINATES=2, PROPERTIES=2, VARIABLES=19
1,2
*Element, type=U2003, elset=esfemfreeedge
        1,         1,         2,        55
        3,        55,         1,         2
        6,         2,         3,        56
       10,         3,         4,        57
       14,         4,         5,        58
       18,         5,         6,        59
       22,         6,         7,        60
       26,         7,         8,        61
       30,         8,         9,        62
       34,         9,        10,        63
       38,        10,        11,        64
       42,        11,        12,        65
       46,        12,        13,        66
       50,        13,        14,        67
       54,        14,        15,        68
       58,        15,        16,        69
       62,        16,        17,        70
       66,        17,        18,        71
       70,        18,        19,        72
       74,        19,        20,        73
** ... 112 like lines cut
*Element, type=U2004, elset=esfemedge
        2,         2,        56,        55,         1
        4,         2,         3,        56,        55
        5,        56,       109,        55,         2
        7,         3,        57,        56,         2
        8,         3,         4,        57,        56
        9,        57,       110,        56,         3
       11,         4,        58,        57,         3
       12,         4,         5,        58,        57
       13,        58,       111,        57,         4
       15,         5,        59,        58,         4
       16,         5,         6,        59,        58
       17,        59,       112,        58,         5
       19,         6,        60,        59,         5
       20,         6,         7,        60,        59
       21,        60,       113,        59,         6
       23,         7,        61,        60,         6
       24,         7,         8,        61,        60
       25,        61,       114,        60,         7
       27,         8,        62,        61,         7
       28,         8,         9,        62,        61
** ... 1981 like lines cut
*Element, type=CPS3, elset=ghost
        2134,   1,   2,  55
        2135,   2,  56,  55
        2136,   2,   3,  56
        2137,   3,  57,  56
        2138,   3,   4,  57
        2139,   4,  58,  57
        2140,   4,   5,  58
        2141,   5,  59,  58
        2142,   5,   6,  59
       2143,   6,  60,  59
       2144,   6,   7,  60
       2145,   7,  61,  60
       2146,   7,   8,  61
       2147,   8,  62,  61
       2148,   8,   9,  62
       2149,   9,  63,  62
       2150,   9,  10,  63
       2151,  10,  64,  63
       2152,  10,  11,  64
       2153,  11,  65,  64
** ... 1358 like lines cut
*Nset, nset=symX, generate
  1,  54,   1
*Nset, nset=symY, generate
   1,  703,   54
*Nset, nset=Load, generate
  54,  756,   54
** Section: Section-1
*Solid Section, elset=ghost, material=ghostmat
,
*UEL PROPERTY, ELSET=esfemfreeedge
70000.0000, 0.3000, 
*UEL PROPERTY, ELSET=esfemedge
70000.0000, 0.3000, 
*End Part
**  
**
** ASSEMBLY
**
*Assembly, name=Assembly
**  
*Instance, name=Part-1-1, part=Part-1
*End Instance
**  
*End Assembly
** 
** MATERIALS
** 
*Material, name=ghostmat
*Elastic
0.00000001, 0.
** 
** BOUNDARY CONDITIONS
** 
** Name: symX Type: Displacement/Rotation
*Boundary
Part-1-1.symX, 2, 2
Part-1-1.symX, 6, 6
** Name: symY Type: Displacement/Rotation
*Boundary
Part-1-1.symY, 1, 1
Part-1-1.symY, 6, 6
** ----------------------------------------------------------------
** 
** STEP: Step-1
** 
*Step, name=Step-1, nlgeom=YES, inc=10000
*Static
0.001, 1., 1e-12, 0.001
*Solution Technique, TYPE=QUASI-NEWTON
** 
** BOUNDARY CONDITIONS
** 
** Name: Loading Type: Displacement/Rotation
*Boundary
Part-1-1.Load, 1, 1, 5.
** 
** CONTROLS
** 
*Controls, reset
*Controls, parameters=time incrementation
50, 1000, , 1500, 1200, 50, , 125, , , 
** 
** OUTPUT REQUESTS
** 
*Restart, write, frequency=0
** 
** FIELD OUTPUT: F-Output-1
** 
*Output, field
*Node Output
CF, RF, U
*Element Output, directions=YES
E, LE, MISES, PE, PEEQ, PEMAG, S
** 
** HISTORY OUTPUT: H-Output-1
** 
*Output, history, variable=PRESELECT
*End Step
